/*--------------------------------*- C++ -*----------------------------------*\
  =========                 |
  \\      /  F ield         | OpenFOAM: The Open Source CFD Toolbox
   \\    /   O peration     | Website:  https://openfoam.org
    \\  /    A nd           | Version:  12
     \\/     M anipulation  |
\*---------------------------------------------------------------------------*/
FoamFile
{
    format      ascii;
    class       dictionary;
    location    "system";
    object      controlDict;
}
// * * * * * * * * * * * * * * * * * * * * * * * * * * * * * * * * * * * * * //

application     foamRun;

solver          incompressibleFluid;

startFrom       latestTime;

startTime       0;

stopAt          endTime;

endTime         800;

deltaT          1;

writeControl    timeStep;

writeInterval   50;

purgeWrite      0;

writeFormat     ascii;

writePrecision  6;

writeCompression off;

timeFormat      general;

timePrecision   6;

runTimeModifiable true;

functions
{
  forceCoeffs1
  {
    // Mandatory entries
    type            forceCoeffs;
    libs            ("libforces.so");
    patches         (curve_extruded);


    // Optional entries

    // Field names
    p               p;
    U               U;
    rho             rhoInf;
    rhoInf          1.225;

    // Reference pressure [Pa]
    pRef            0;

    // Include porosity effects?
    porosity        no;

    // Store and write volume field representations of forces and moments
    writeFields     yes;

    // Centre of rotation for moment calculations
    CofR            (0 0 0);

    // Lift direction
    liftDir         (0 1 0);

    // Drag direction
    dragDir         (1 0 0);

    // Pitch axis
    pitchAxis       (0 0 1);

    // Freestream velocity magnitude [m/s]
    magUInf         50;

    // Reference length [m]
    lRef            4;

    // Reference area [m2]
    Aref            1;

    // Spatial data binning
    // - extents given by the bounds of the input geometry
    binData
    {
        nBin        20;
        direction   (1 0 0);
        cumulative  yes;
    }
  }
}

// ************************************************************************* //
