/*--------------------------------*- C++ -*----------------------------------*\
  =========                 |
  \\      /  F ield         | OpenFOAM: The Open Source CFD Toolbox
   \\    /   O peration     | Website:  https://openfoam.org
    \\  /    A nd           | Version:  13
     \\/     M anipulation  |
\*---------------------------------------------------------------------------*/
FoamFile
{
    format      ascii;
    class       polyBoundaryMesh;
    location    "constant/polyMesh";
    object      boundary;
}
// * * * * * * * * * * * * * * * * * * * * * * * * * * * * * * * * * * * * * //

6
(
    frontAndBack
    {
        type            empty;
        nFaces          52363;
        startFace       77833;
    }
    inlet_extruded
    {
        type            patch;
        nFaces          100;
        startFace       130196;
    }
    outlet_extruded
    {
        type            patch;
        nFaces          100;
        startFace       130296;
    }
    curve_extruded
    {
        type            wall;
        nFaces          823;
        startFace       130396;
    }
    walls_extruded
    {
        type            wall;
        nFaces          400;
        startFace       131219;
    }
    frontAndBack_top
    {
        type            empty;
        nFaces          52363;
        startFace       131619;
    }
)

// ************************************************************************* //
