/*--------------------------------*- C++ -*----------------------------------*\
  =========                 |
  \\      /  F ield         | OpenFOAM: The Open Source CFD Toolbox
   \\    /   O peration     | Website:  https://openfoam.org
    \\  /    A nd           | Version:  12
     \\/     M anipulation  |
\*---------------------------------------------------------------------------*/
FoamFile
{
    format      ascii;
    class       dictionary;
    location    "system";
    object      mapFieldsDict;
}
// * * * * * * * * * * * * * * * * * * * * * * * * * * * * * * * * * * * * * //

patchMap
(
    frontAndBack frontAndBack
    inlet_extruded inlet_extruded
    outlet_extruded outlet_extruded
    curve_extruded curve_extruded
    walls_extruded walls_extruded
    frontAndBack_top frontAndBack_top

);

cuttingPatches
(
);

// ************************************************************************* //
